* File: low_swing_tx.pex.netlist.pex
* Created: Sat Dec  7 20:48:37 2024
* Program "Calibre xRC"
* Version "v2019.4_36.18"
* Nominal Temperature: 27C
* Circuit Temperature: 27C
* 
.subckt PM_LOW_SWING_TX%VSS 5 6 12 18 21 33 36 51 54 69 72 110 113 125 128 140
+ 143 179 182 215 250 255 256 266 268 276 284 286 VSS
c244 263 VSS 0.00358468f
c245 262 VSS 0.00358468f
c246 261 VSS 0.00356258f
c247 259 VSS 0.00356258f
c248 257 VSS 0.00358468f
c249 256 VSS 0.00356258f
c250 255 VSS 0.00356258f
c251 254 VSS 0.00358468f
c252 253 VSS 0.00358468f
c253 250 VSS 0.347474f
c254 215 VSS 0.0174214f
c255 182 VSS 0.303653f
c256 179 VSS 0.0179784f
c257 143 VSS 0.342578f
c258 140 VSS 0.0065326f
c259 128 VSS 0.0689036f
c260 125 VSS 0.00500116f
c261 113 VSS 0.0676152f
c262 110 VSS 0.0151662f
c263 72 VSS 0.330844f
c264 69 VSS 0.00436725f
c265 54 VSS 0.0695966f
c266 51 VSS 0.00436725f
c267 36 VSS 0.0692089f
c268 33 VSS 0.0148569f
c269 21 VSS 0.0808938f
c270 18 VSS 0.0180441f
c271 6 VSS 0.0769781f
r272 259 260 8.66667
r273 247 250 0.237394
r274 244 247 0.237394
r275 241 244 0.237394
r276 238 239 0.136502
r277 236 241 0.237394
r278 236 239 0.0375874
r279 233 238 0.0633963
r280 230 233 0.237736
r281 227 230 0.237736
r282 223 227 0.237736
r283 223 225 0.142642
r284 220 225 0.0949576
r285 218 263 0.0221751
r286 218 220 0.0316525
r287 216 286 21.7381
r288 215 216 26
r289 213 263 0.0882472
r290 213 215 0.32213
r291 208 211 0.237394
r292 205 208 0.237394
r293 202 205 0.237394
r294 199 202 0.237394
r295 196 199 0.237394
r296 193 196 0.237394
r297 190 191 0.0356234
r298 188 193 0.237394
r299 188 191 0.142436
r300 185 190 0.0593485
r301 183 262 0.0221751
r302 183 185 0.0672617
r303 182 263 0.0221751
r304 182 211 0.170132
r305 180 284 21.7381
r306 179 180 26
r307 177 262 0.0882472
r308 177 179 0.32213
r309 172 175 0.237394
r310 169 172 0.237394
r311 166 169 0.237394
r312 163 166 0.237394
r313 160 163 0.237394
r314 157 160 0.237394
r315 154 155 0.0356234
r316 152 157 0.237394
r317 152 155 0.185959
r318 149 154 0.0158263
r319 149 150 8.66667
r320 147 150 64.7228
r321 146 149 0.237394
r322 146 147 8.66667
r323 144 261 0.0221751
r324 144 146 0.0435222
r325 143 262 0.0221751
r326 143 175 0.134523
r327 141 276 22.5519
r328 141 276 22.5519
r329 140 141 26
r330 138 261 0.0882472
r331 138 140 0.32213
r332 136 137 0.0356234
r333 135 147 64.7228
r334 134 137 0.13848
r335 134 135 8.66667
r336 132 135 64.7228
r337 132 260 64.7228
r338 131 136 0.0633051
r339 131 132 8.66667
r340 129 259 0.0221751
r341 129 131 0.233438
r342 128 261 0.0221751
r343 128 134 0.158263
r344 126 276 22.5519
r345 126 276 22.5519
r346 125 126 26
r347 123 259 0.0882472
r348 123 125 0.32213
r349 121 122 0.0356234
r350 120 260 64.7228
r351 119 122 0.0910011
r352 119 120 8.66667
r353 117 120 64.7228
r354 116 121 0.110784
r355 116 117 8.66667
r356 114 257 0.0221751
r357 114 116 0.185959
r358 113 259 0.0221751
r359 113 119 0.205742
r360 111 276 21.7381
r361 110 111 26
r362 108 257 0.0882472
r363 108 110 0.32213
r364 107 117 64.7228
r365 106 107 8.66667
r366 104 107 64.7228
r367 103 106 0.237394
r368 103 104 8.66667
r369 100 104 64.7228
r370 99 103 0.237394
r371 99 101 0.13848
r372 99 100 8.66667
r373 96 100 64.7228
r374 95 101 0.0989934
r375 95 97 0.0890941
r376 95 96 8.66667
r377 93 96 64.7228
r378 92 97 0.148371
r379 92 93 8.66667
r380 90 93 64.7228
r381 89 92 0.237394
r382 89 90 8.66667
r383 87 90 64.7228
r384 86 89 0.237394
r385 86 87 8.66667
r386 84 87 64.7228
r387 83 86 0.237394
r388 83 84 8.66667
r389 80 81 0.0356234
r390 79 84 64.7228
r391 78 83 0.237394
r392 78 81 0.027696
r393 78 79 8.66667
r394 76 79 64.7228
r395 75 80 0.174089
r396 75 76 8.66667
r397 73 256 0.0221751
r398 73 75 0.122654
r399 72 257 0.0221751
r400 72 106 0.0158263
r401 70 268 22.5519
r402 70 268 22.5519
r403 69 70 26
r404 67 256 0.0882472
r405 67 69 0.32213
r406 65 76 64.7228
r407 64 66 0.217611
r408 64 65 8.66667
r409 61 65 64.7228
r410 60 66 0.0197908
r411 60 62 0.0158326
r412 60 61 8.66667
r413 58 61 64.7228
r414 57 62 0.221568
r415 57 58 8.66667
r416 55 255 0.0221751
r417 55 57 0.0751748
r418 54 256 0.0221751
r419 54 64 0.0791314
r420 52 268 22.5519
r421 52 268 22.5519
r422 51 52 26
r423 49 255 0.0882472
r424 49 51 0.32213
r425 47 48 0.0356234
r426 46 58 64.7228
r427 45 48 0.170132
r428 45 46 8.66667
r429 43 46 64.7228
r430 42 47 0.0316525
r431 42 43 8.66667
r432 40 43 64.7228
r433 39 42 0.237394
r434 39 40 8.66667
r435 37 254 0.0221751
r436 37 39 0.027696
r437 36 255 0.0221751
r438 36 45 0.12661
r439 34 268 21.7381
r440 33 34 26
r441 31 254 0.0882472
r442 31 33 0.32213
r443 30 40 64.7228
r444 29 30 8.66667
r445 26 27 0.0356234
r446 25 30 64.7228
r447 24 29 0.237394
r448 24 27 0.0237394
r449 24 25 8.66667
r450 22 253 0.0221751
r451 22 26 0.12661
r452 21 254 0.0221751
r453 21 29 0.174089
r454 19 266 21.7381
r455 18 19 26
r456 16 253 0.0882472
r457 16 18 0.32213
r458 15 25 64.7228
r459 14 15 8.66667
r460 12 14 0.213655
r461 9 15 64.7228
r462 8 12 0.0237394
r463 8 9 8.66667
r464 6 253 0.0221751
r465 6 14 0.0158263
r466 5 150 40.9911
r467 5 250 8.66667
r468 5 247 8.66667
r469 5 244 8.66667
r470 5 241 8.66667
r471 5 236 8.66667
r472 5 233 8.66667
r473 5 230 8.66667
r474 5 227 8.66667
r475 5 223 8.66667
r476 5 220 8.66667
r477 5 211 8.66667
r478 5 208 8.66667
r479 5 205 8.66667
r480 5 202 8.66667
r481 5 199 8.66667
r482 5 196 8.66667
r483 5 193 8.66667
r484 5 188 8.66667
r485 5 185 8.66667
r486 5 175 8.66667
r487 5 172 8.66667
r488 5 169 8.66667
r489 5 166 8.66667
r490 5 163 8.66667
r491 5 160 8.66667
r492 5 157 8.66667
r493 5 152 8.66667
.ends

.subckt PM_LOW_SWING_TX%VDD 9 10 16 22 25 32 35 42 45 58 61 74 77 90 93 103 106
+ 116 119 129 132 142 145 155 158 171 174 187 190 203 206 213 216 223 226 233
+ 236 243 246 253 256 263 266 276 279 286 316 383 387 403 419 423 VSS
c586 349 VSS 0.00358468f
c587 348 VSS 0.00358468f
c588 347 VSS 0.00358468f
c589 346 VSS 0.00358468f
c590 344 VSS 0.00358468f
c591 342 VSS 0.00358468f
c592 340 VSS 0.00358468f
c593 338 VSS 0.00358468f
c594 337 VSS 0.00358468f
c595 336 VSS 0.00356258f
c596 335 VSS 0.00356258f
c597 334 VSS 0.00356258f
c598 332 VSS 0.00356258f
c599 330 VSS 0.00358468f
c600 329 VSS 0.00358468f
c601 327 VSS 0.00356258f
c602 325 VSS 0.00356258f
c603 324 VSS 0.00356258f
c604 323 VSS 0.00356258f
c605 322 VSS 0.00358468f
c606 321 VSS 0.00358468f
c607 320 VSS 0.00358468f
c608 316 VSS 0.287024f
c609 286 VSS 0.0180905f
c610 279 VSS 0.0358169f
c611 276 VSS 0.0145445f
c612 266 VSS 0.0358169f
c613 263 VSS 0.0145445f
c614 256 VSS 0.0358169f
c615 253 VSS 0.0145445f
c616 246 VSS 0.0358169f
c617 243 VSS 0.0145445f
c618 236 VSS 0.0359706f
c619 233 VSS 0.0175841f
c620 226 VSS 0.0493457f
c621 223 VSS 0.0182767f
c622 216 VSS 0.0351515f
c623 213 VSS 0.0172106f
c624 206 VSS 0.0421761f
c625 203 VSS 0.0167657f
c626 190 VSS 0.075749f
c627 187 VSS 0.00821993f
c628 174 VSS 0.0760611f
c629 171 VSS 0.00821993f
c630 158 VSS 0.0760611f
c631 155 VSS 0.00821993f
c632 145 VSS 0.0760611f
c633 142 VSS 0.00821993f
c634 132 VSS 0.0738479f
c635 129 VSS 0.0160141f
c636 119 VSS 0.0361794f
c637 116 VSS 0.0161109f
c638 106 VSS 0.0760329f
c639 103 VSS 0.00821993f
c640 93 VSS 0.0762673f
c641 90 VSS 0.00821993f
c642 77 VSS 0.0762673f
c643 74 VSS 0.00821993f
c644 61 VSS 0.0762673f
c645 58 VSS 0.00821993f
c646 45 VSS 0.0750582f
c647 42 VSS 0.0160435f
c648 35 VSS 0.043313f
c649 32 VSS 0.0167743f
c650 25 VSS 0.0356047f
c651 22 VSS 0.0228388f
c652 10 VSS 0.0700145f
r653 332 333 8.66667
r654 327 328 8.66667
r655 313 316 0.237736
r656 310 313 0.237736
r657 307 310 0.237736
r658 304 307 0.237736
r659 301 304 0.237736
r660 298 301 0.237736
r661 294 298 0.237736
r662 294 296 0.19217
r663 291 296 0.0455005
r664 289 349 0.0221751
r665 289 291 0.106827
r666 287 423 20.8376
r667 286 287 26
r668 284 349 0.0882472
r669 284 286 0.429507
r670 280 348 0.0221751
r671 280 282 0.193872
r672 279 349 0.0221751
r673 279 282 0.0949576
r674 277 423 21.6176
r675 277 423 21.6176
r676 276 277 26
r677 274 348 0.0882472
r678 274 276 0.429507
r679 269 272 0.237394
r680 267 347 0.0221751
r681 267 269 0.0435222
r682 266 348 0.0221751
r683 266 272 0.00791314
r684 264 423 21.6176
r685 264 423 21.6176
r686 263 264 26
r687 261 347 0.0882472
r688 261 263 0.429507
r689 257 346 0.0221751
r690 257 259 0.130567
r691 256 347 0.0221751
r692 256 259 0.158263
r693 254 423 21.6176
r694 254 423 21.6176
r695 253 254 26
r696 251 346 0.0882472
r697 251 253 0.429507
r698 247 344 0.0221751
r699 247 249 0.217611
r700 246 346 0.0221751
r701 246 249 0.0712182
r702 244 423 21.6176
r703 244 423 21.6176
r704 243 244 26
r705 241 344 0.0882472
r706 241 243 0.429507
r707 237 342 0.0221751
r708 237 239 0.0672617
r709 236 344 0.0221751
r710 236 239 0.221568
r711 234 423 20.8376
r712 233 234 26
r713 231 342 0.0882472
r714 231 233 0.429507
r715 227 340 0.0221751
r716 227 229 0.217611
r717 226 342 0.0221751
r718 226 229 0.134523
r719 224 419 20.8376
r720 223 224 26
r721 221 340 0.0882472
r722 221 223 0.429507
r723 217 338 0.0221751
r724 217 219 0.0672617
r725 216 340 0.0221751
r726 216 219 0.221568
r727 214 419 20.8376
r728 213 214 26
r729 211 338 0.0882472
r730 211 213 0.429507
r731 207 337 0.0221751
r732 207 209 0.185959
r733 206 338 0.0221751
r734 206 209 0.134523
r735 204 403 20.8376
r736 203 204 26
r737 201 337 0.0882472
r738 201 203 0.429507
r739 196 199 0.237394
r740 193 196 0.237394
r741 191 336 0.0221751
r742 191 193 0.13848
r743 190 337 0.0221751
r744 190 199 0.0158263
r745 188 403 21.6176
r746 188 403 21.6176
r747 187 188 26
r748 185 336 0.0882472
r749 185 187 0.429507
r750 180 183 0.237394
r751 177 180 0.237394
r752 175 335 0.0221751
r753 175 177 0.0910011
r754 174 336 0.0221751
r755 174 183 0.0633051
r756 172 403 21.6176
r757 172 403 21.6176
r758 171 172 26
r759 169 335 0.0882472
r760 169 171 0.429507
r761 164 167 0.237394
r762 164 165 8.66667
r763 162 165 67.52
r764 161 164 0.237394
r765 161 162 8.66667
r766 159 334 0.0221751
r767 159 161 0.0435222
r768 158 335 0.0221751
r769 158 167 0.110784
r770 156 403 21.6176
r771 156 403 21.6176
r772 155 156 26
r773 153 334 0.0882472
r774 153 155 0.429507
r775 152 162 67.52
r776 151 152 8.66667
r777 149 152 67.52
r778 149 333 67.52
r779 148 151 0.237394
r780 148 149 8.66667
r781 146 332 0.0221751
r782 146 148 0.233438
r783 145 334 0.0221751
r784 145 151 0.158263
r785 143 403 21.6176
r786 143 403 21.6176
r787 142 143 26
r788 140 332 0.0882472
r789 140 142 0.429507
r790 139 333 67.52
r791 138 139 8.66667
r792 136 139 67.52
r793 135 138 0.237394
r794 135 136 8.66667
r795 133 330 0.0221751
r796 133 135 0.185959
r797 132 332 0.0221751
r798 132 138 0.205742
r799 130 403 20.8376
r800 129 130 26
r801 127 330 0.0882472
r802 127 129 0.429507
r803 126 136 67.52
r804 125 126 8.66667
r805 123 126 67.52
r806 122 125 0.237394
r807 122 123 8.66667
r808 120 329 0.0221751
r809 120 122 0.027696
r810 119 330 0.0221751
r811 119 125 0.0158263
r812 117 387 20.8376
r813 116 117 26
r814 114 329 0.0882472
r815 114 116 0.429507
r816 113 123 67.52
r817 112 113 8.66667
r818 110 113 67.52
r819 110 328 67.52
r820 109 112 0.237394
r821 109 110 8.66667
r822 107 327 0.0221751
r823 107 109 0.217611
r824 106 329 0.0221751
r825 106 112 0.174089
r826 104 387 21.6176
r827 104 387 21.6176
r828 103 104 26
r829 101 327 0.0882472
r830 101 103 0.429507
r831 100 328 67.52
r832 99 100 8.66667
r833 97 100 67.52
r834 96 99 0.237394
r835 96 97 8.66667
r836 94 325 0.0221751
r837 94 96 0.170132
r838 93 327 0.0221751
r839 93 99 0.221568
r840 91 387 21.6176
r841 91 387 21.6176
r842 90 91 26
r843 88 325 0.0882472
r844 88 90 0.429507
r845 87 97 67.52
r846 86 87 8.66667
r847 84 87 67.52
r848 83 86 0.237394
r849 83 84 8.66667
r850 81 84 67.52
r851 80 83 0.237394
r852 80 81 8.66667
r853 78 324 0.0221751
r854 78 80 0.122654
r855 77 325 0.0221751
r856 77 86 0.0316525
r857 75 387 21.6176
r858 75 387 21.6176
r859 74 75 26
r860 72 324 0.0882472
r861 72 74 0.429507
r862 71 81 67.52
r863 70 71 8.66667
r864 68 71 67.52
r865 67 70 0.237394
r866 67 68 8.66667
r867 65 68 67.52
r868 64 67 0.237394
r869 64 65 8.66667
r870 62 323 0.0221751
r871 62 64 0.0751748
r872 61 324 0.0221751
r873 61 70 0.0791314
r874 59 387 21.6176
r875 59 387 21.6176
r876 58 59 26
r877 56 323 0.0882472
r878 56 58 0.429507
r879 55 65 67.52
r880 54 55 8.66667
r881 52 55 67.52
r882 51 54 0.237394
r883 51 52 8.66667
r884 49 52 67.52
r885 48 51 0.237394
r886 48 49 8.66667
r887 46 322 0.0221751
r888 46 48 0.027696
r889 45 323 0.0221751
r890 45 54 0.12661
r891 43 387 20.8376
r892 42 43 26
r893 40 322 0.0882472
r894 40 42 0.429507
r895 39 49 67.52
r896 38 39 8.66667
r897 36 321 0.0221751
r898 36 38 0.0989142
r899 35 322 0.0221751
r900 35 38 0.174089
r901 33 383 20.8376
r902 32 33 26
r903 30 321 0.0882472
r904 30 32 0.429507
r905 29 39 67.52
r906 28 29 8.66667
r907 26 320 0.0221751
r908 26 28 0.185959
r909 25 321 0.0221751
r910 25 28 0.102871
r911 23 383 20.8376
r912 22 23 26
r913 20 320 0.0882472
r914 20 22 0.429507
r915 19 29 67.52
r916 18 19 8.66667
r917 16 18 0.0553919
r918 13 19 67.52
r919 12 16 0.182002
r920 12 13 8.66667
r921 10 320 0.0221751
r922 10 18 0.0158263
r923 9 165 42.7627
r924 9 344 8.66667
r925 9 340 8.66667
r926 9 316 8.66667
r927 9 313 8.66667
r928 9 310 8.66667
r929 9 307 8.66667
r930 9 304 8.66667
r931 9 301 8.66667
r932 9 298 8.66667
r933 9 294 8.66667
r934 9 291 8.66667
r935 9 282 8.66667
r936 9 272 8.66667
r937 9 269 8.66667
r938 9 259 8.66667
r939 9 249 8.66667
r940 9 239 8.66667
r941 9 229 8.66667
r942 9 219 8.66667
r943 9 209 8.66667
r944 9 199 8.66667
r945 9 196 8.66667
r946 9 193 8.66667
r947 9 183 8.66667
r948 9 180 8.66667
r949 9 177 8.66667
r950 9 167 8.66667
.ends

.subckt PM_LOW_SWING_TX%NET19 11 92 276 287 288 289 290 291 297 300 301 302 303
+ 305 312 313 314 315 321 324 325 326 327 329 332 339 340 345 346 351 352 357
+ 358 362 365 366 368 369 374 375 378 379 384 389 394 399 404 409 414 419 424
+ 426 428 430 436 442 448 454 460 466 472 478 484 490 497 500 501 504 505 506
+ 507 508 509 510 511 513 522 527 532 537 539 542 543 546 547 549 550 553 560
+ 565 569 572 VSS
c527 565 VSS 0.0077644f
c528 560 VSS 0.0337943f
c529 553 VSS 0.00604446f
c530 550 VSS 0.0016903f
c531 549 VSS 0.150519f
c532 547 VSS 0.0169942f
c533 546 VSS 0.0102851f
c534 543 VSS 0.00550869f
c535 542 VSS 0.00106284f
c536 539 VSS 0.0075399f
c537 537 VSS 0.00177671f
c538 532 VSS 0.0206881f
c539 527 VSS 0.00656954f
c540 522 VSS 0.011568f
c541 513 VSS 0.00199405f
c542 511 VSS 0.00152065f
c543 510 VSS 0.00152065f
c544 509 VSS 0.00152065f
c545 508 VSS 0.00152065f
c546 507 VSS 0.00152065f
c547 506 VSS 0.00152065f
c548 505 VSS 0.00152065f
c549 504 VSS 0.00152065f
c550 501 VSS 0.00567355f
c551 500 VSS 0.00958588f
c552 497 VSS 0.0373937f
c553 490 VSS 0.0397649f
c554 484 VSS 0.0397649f
c555 478 VSS 0.0397649f
c556 472 VSS 0.0367095f
c557 466 VSS 0.0367095f
c558 460 VSS 0.0330998f
c559 454 VSS 0.0367095f
c560 448 VSS 0.0330998f
c561 442 VSS 0.0367095f
c562 436 VSS 0.0330998f
c563 430 VSS 0.0183017f
c564 428 VSS 0.00693573f
c565 427 VSS 0.00438167f
c566 426 VSS 0.016179f
c567 424 VSS 0.0116144f
c568 378 VSS 0.0124547f
c569 419 VSS 0.0111989f
c570 378 VSS 0.0112626f
c571 414 VSS 0.00997967f
c572 378 VSS 0.0112626f
c573 409 VSS 0.0111989f
c574 378 VSS 0.0112626f
c575 404 VSS 0.00997967f
c576 378 VSS 0.0112626f
c577 399 VSS 0.0111989f
c578 378 VSS 0.0112626f
c579 394 VSS 0.00997967f
c580 378 VSS 0.0112626f
c581 389 VSS 0.0111989f
c582 378 VSS 0.0112626f
c583 384 VSS 0.00997967f
c584 378 VSS 0.0112626f
c585 379 VSS 0.0119608f
c586 378 VSS 0.0133722f
c587 375 VSS 0.00481411f
c588 374 VSS 0.0137118f
c589 430 VSS 0.0367569f
c590 369 VSS 0.0082841f
c591 368 VSS 0.00745453f
c592 366 VSS 0.00184958f
c593 365 VSS 0.00901406f
c594 364 VSS 0.00639242f
c595 362 VSS 0.0361652f
c596 361 VSS 0.0043373f
c597 360 VSS 0.0063523f
c598 358 VSS 0.00184961f
c599 357 VSS 0.0112313f
c600 356 VSS 0.0063523f
c601 354 VSS 0.00639242f
c602 352 VSS 0.00184958f
c603 351 VSS 0.00865605f
c604 350 VSS 0.00639242f
c605 348 VSS 0.0063523f
c606 346 VSS 0.00184961f
c607 345 VSS 0.0112313f
c608 344 VSS 0.0063523f
c609 342 VSS 0.00639242f
c610 340 VSS 0.00184958f
c611 339 VSS 0.00865605f
c612 338 VSS 0.00639242f
c613 426 VSS 0.0299927f
c614 332 VSS 0.00760947f
c615 331 VSS 0.0063523f
c616 329 VSS 0.00637941f
c617 327 VSS 0.00184961f
c618 326 VSS 0.0112313f
c619 325 VSS 0.00255643f
c620 324 VSS 0.0154291f
c621 323 VSS 0.0063523f
c622 321 VSS 0.00451105f
c623 319 VSS 0.00639242f
c624 317 VSS 0.00453954f
c625 315 VSS 0.00184958f
c626 314 VSS 0.00865605f
c627 313 VSS 0.00255642f
c628 312 VSS 0.0140247f
c629 311 VSS 0.00639242f
c630 309 VSS 0.00453954f
c631 307 VSS 0.0063523f
c632 305 VSS 0.00451105f
c633 303 VSS 0.00184961f
c634 302 VSS 0.0112313f
c635 301 VSS 0.00255643f
c636 300 VSS 0.0145782f
c637 299 VSS 0.0063523f
c638 297 VSS 0.00451105f
c639 295 VSS 0.00736165f
c640 293 VSS 0.00550877f
c641 291 VSS 0.00236845f
c642 290 VSS 0.00865605f
c643 289 VSS 0.00295461f
c644 288 VSS 0.0140247f
c645 287 VSS 0.0065424f
c646 277 VSS 0.00505472f
c647 276 VSS 0.0377991f
c648 92 VSS 0.0265059f
c649 11 VSS 0.0289276f
r650 564 565 20
r651 553 554 1.5
r652 551 553 0.116757
r653 549 551 0.0764681
r654 549 550 9.41842
r655 547 564 0.297085
r656 546 547 1.5
r657 544 550 0.0764681
r658 544 546 0.194595
r659 543 554 0.0476007
r660 539 540 20
r661 537 543 0.0600865
r662 537 539 0.379659
r663 534 535 0.0903641
r664 532 535 0.204992
r665 532 533 20
r666 530 542 0.0189301
r667 530 534 0.312369
r668 528 572 21.6176
r669 528 572 21.6176
r670 527 528 26
r671 525 542 0.072841
r672 525 527 0.307488
r673 523 569 21.7381
r674 522 523 26
r675 520 542 0.072841
r676 520 522 0.287965
r677 512 560 119.85
r678 512 513 6.47871
r679 501 503 15.3
r680 500 540 4.17273
r681 499 565 4.17273
r682 496 497 6.885
r683 430 496 1.33875
r684 492 430 8.22375
r685 430 490 8.22375
r686 486 430 8.22375
r687 430 484 8.22375
r688 480 430 8.22375
r689 430 478 8.22375
r690 474 430 8.22375
r691 430 472 8.22375
r692 468 430 8.22375
r693 430 466 8.22375
r694 462 430 8.22375
r695 426 460 8.22375
r696 456 426 8.22375
r697 430 454 8.22375
r698 450 430 8.22375
r699 426 448 8.22375
r700 444 426 8.22375
r701 430 442 8.22375
r702 438 430 8.22375
r703 426 436 8.22375
r704 432 426 8.22375
r705 430 431 22.9862
r706 426 427 22.9862
r707 424 533 4.17273
r708 421 513 6.47871
r709 421 378 43.35
r710 420 511 6.47871
r711 419 513 1.6837
r712 419 420 89.25
r713 416 511 1.6837
r714 416 378 43.35
r715 415 510 6.47871
r716 414 511 6.47871
r717 414 415 89.25
r718 411 510 1.6837
r719 411 378 43.35
r720 410 509 6.47871
r721 409 510 6.47871
r722 409 410 89.25
r723 406 509 1.6837
r724 406 378 43.35
r725 405 508 6.47871
r726 404 509 6.47871
r727 404 405 89.25
r728 401 508 1.6837
r729 401 378 43.35
r730 400 507 6.47871
r731 399 508 6.47871
r732 399 400 89.25
r733 396 507 1.6837
r734 396 378 43.35
r735 395 506 6.47871
r736 394 507 6.47871
r737 394 395 89.25
r738 391 506 1.6837
r739 391 378 43.35
r740 390 505 6.47871
r741 389 506 6.47871
r742 389 390 89.25
r743 386 505 1.6837
r744 386 378 43.35
r745 385 504 6.47871
r746 384 505 6.47871
r747 384 385 89.25
r748 381 504 1.6837
r749 381 378 43.35
r750 380 503 0.898551
r751 379 504 6.47871
r752 379 380 89.25
r753 376 503 7.65
r754 376 378 43.35
r755 375 500 9.21942
r756 374 501 0.898551
r757 374 375 80.325
r758 369 430 7.07625
r759 367 369 16.938
r760 367 368 35.7
r761 365 368 8.54855
r762 365 366 89.25
r763 364 366 8.54855
r764 363 497 15.7905
r765 363 364 35.7
r766 362 496 11.4511
r767 361 499 7.72845
r768 361 362 72.675
r769 359 492 15.7905
r770 359 360 35.7
r771 357 360 8.54855
r772 357 358 89.25
r773 356 358 8.54855
r774 355 490 15.7905
r775 355 356 35.7
r776 353 486 15.7905
r777 353 354 35.7
r778 351 354 8.54855
r779 351 352 89.25
r780 350 352 8.54855
r781 349 484 15.7905
r782 349 350 35.7
r783 347 480 15.7905
r784 347 348 35.7
r785 345 348 8.54855
r786 345 346 89.25
r787 344 346 8.54855
r788 343 478 15.7905
r789 343 344 35.7
r790 341 474 15.7905
r791 341 342 35.7
r792 339 342 8.54855
r793 339 340 89.25
r794 338 340 8.54855
r795 337 472 15.7905
r796 337 338 35.7
r797 332 426 7.07625
r798 330 468 15.7905
r799 330 331 35.7
r800 329 332 16.938
r801 328 329 25.5
r802 326 331 8.54855
r803 326 327 89.25
r804 324 328 8.54855
r805 324 325 89.25
r806 323 327 8.54855
r807 322 466 15.7905
r808 322 323 35.7
r809 321 460 15.7905
r810 320 325 8.54855
r811 320 321 25.5
r812 318 462 15.7905
r813 318 319 35.7
r814 317 456 15.7905
r815 316 317 25.5
r816 314 319 8.54855
r817 314 315 89.25
r818 312 316 8.54855
r819 312 313 89.25
r820 311 315 8.54855
r821 310 454 15.7905
r822 310 311 35.7
r823 309 448 15.7905
r824 308 313 8.54855
r825 308 309 25.5
r826 306 450 15.7905
r827 306 307 35.7
r828 305 444 15.7905
r829 304 305 25.5
r830 302 307 8.54855
r831 302 303 89.25
r832 300 304 8.54855
r833 300 301 89.25
r834 299 303 8.54855
r835 298 442 15.7905
r836 298 299 35.7
r837 297 436 15.7905
r838 296 301 8.54855
r839 296 297 25.5
r840 294 438 15.7905
r841 294 295 35.7
r842 293 432 15.7905
r843 292 293 25.5
r844 290 295 8.54855
r845 290 291 89.25
r846 288 292 8.54855
r847 288 289 89.25
r848 287 291 8.54855
r849 287 431 35.7
r850 284 289 8.54855
r851 284 427 25.5
r852 282 430 1.4051
r853 281 428 1.36408
r854 279 428 1.36408
r855 278 426 1.4051
r856 277 424 7.92549
r857 276 428 9.75417
r858 276 277 104.55
r859 92 279 7.58755
r860 92 278 0.218571
r861 11 282 0.249796
r862 11 281 8.18082
.ends

.subckt PM_LOW_SWING_TX%NET17 111 112 115 116 121 126 131 136 141 146 151 156
+ 163 164 165 166 167 168 169 170 173 178 183 184 197 200 203 VSS
c202 197 VSS 0.001951f
c203 184 VSS 0.0101974f
c204 183 VSS 0.198342f
c205 178 VSS 0.00873727f
c206 173 VSS 0.00668273f
c207 170 VSS 0.00152065f
c208 169 VSS 0.00152065f
c209 168 VSS 0.00152065f
c210 167 VSS 0.00152065f
c211 166 VSS 0.00152065f
c212 165 VSS 0.00152065f
c213 164 VSS 0.00152065f
c214 163 VSS 0.00152065f
c215 162 VSS 0.00183975f
c216 115 VSS 0.0137142f
c217 156 VSS 0.019666f
c218 115 VSS 0.0116035f
c219 151 VSS 0.00986075f
c220 115 VSS 0.0116035f
c221 146 VSS 0.011054f
c222 115 VSS 0.0116035f
c223 141 VSS 0.00986075f
c224 115 VSS 0.0116035f
c225 136 VSS 0.011054f
c226 115 VSS 0.0116035f
c227 131 VSS 0.00986075f
c228 115 VSS 0.0116035f
c229 126 VSS 0.011054f
c230 115 VSS 0.0116035f
c231 121 VSS 0.00986075f
c232 115 VSS 0.0116035f
c233 116 VSS 0.0117978f
c234 115 VSS 0.0123736f
c235 112 VSS 0.00981695f
c236 111 VSS 0.00524885f
r237 194 195 0.110224
r238 193 194 0.424627
r239 192 193 0.581736
r240 191 192 0.143665
r241 190 191 0.391906
r242 189 190 0.143665
r243 188 189 4.01704
r244 187 188 0.492957
r245 186 187 0.483759
r246 185 186 0.222749
r247 183 195 0.156184
r248 183 184 20
r249 181 197 0.0189301
r250 181 185 0.614976
r251 179 203 21.6176
r252 179 203 21.6176
r253 178 179 26
r254 176 197 0.072841
r255 176 178 0.405103
r256 174 200 21.7381
r257 173 174 26
r258 171 197 0.072841
r259 171 173 0.19035
r260 161 184 4.17273
r261 158 115 43.35
r262 157 170 6.47871
r263 156 158 8.54855
r264 156 157 89.25
r265 153 170 1.6837
r266 153 115 43.35
r267 152 169 6.47871
r268 151 170 6.47871
r269 151 152 89.25
r270 148 169 1.6837
r271 148 115 43.35
r272 147 168 6.47871
r273 146 169 6.47871
r274 146 147 89.25
r275 143 168 1.6837
r276 143 115 43.35
r277 142 167 6.47871
r278 141 168 6.47871
r279 141 142 89.25
r280 138 167 1.6837
r281 138 115 43.35
r282 137 166 6.47871
r283 136 167 6.47871
r284 136 137 89.25
r285 133 166 1.6837
r286 133 115 43.35
r287 132 165 6.47871
r288 131 166 6.47871
r289 131 132 89.25
r290 128 165 1.6837
r291 128 115 43.35
r292 127 164 6.47871
r293 126 165 6.47871
r294 126 127 89.25
r295 123 164 1.6837
r296 123 115 43.35
r297 122 163 6.47871
r298 121 164 6.47871
r299 121 122 89.25
r300 118 163 1.6837
r301 118 115 43.35
r302 117 162 1.6837
r303 116 163 6.47871
r304 116 117 89.25
r305 113 162 6.47871
r306 113 115 43.35
r307 112 162 6.47871
r308 111 161 9.21942
r309 111 112 36.975
.ends

.subckt PM_LOW_SWING_TX%C 3 6 7 10 13 14 18 21 26 28 34 37 43 46 52 58 59 60 61
+ 64 VSS
c150 60 VSS 0.00200826f
c151 59 VSS 0.00200826f
c152 55 VSS 0.0096966f
c153 52 VSS 0.00220888f
c154 46 VSS 0.0214937f
c155 43 VSS 0.00234387f
c156 37 VSS 0.016535f
c157 34 VSS 0.00234387f
c158 28 VSS 0.0133558f
c159 26 VSS 0.0122269f
c160 21 VSS 0.00234593f
c161 18 VSS 0.0184694f
c162 14 VSS 0.00197376f
c163 13 VSS 0.0129363f
c164 10 VSS 0.0021725f
c165 7 VSS 0.0013902f
c166 6 VSS 0.0511667f
c167 3 VSS 0.00295309f
r168 55 57 0.141542
r169 53 64 21.6176
r170 53 64 21.6176
r171 52 53 26
r172 50 52 0.209873
r173 48 49 0.105696
r174 47 60 0.072841
r175 47 48 0.312369
r176 46 50 0.0961124
r177 46 49 0.312369
r178 44 64 21.6176
r179 44 64 21.6176
r180 43 44 26
r181 41 60 0.0189301
r182 41 43 0.209873
r183 39 40 0.105696
r184 38 59 0.072841
r185 38 39 0.312369
r186 37 60 0.072841
r187 37 40 0.312369
r188 35 64 21.6176
r189 35 64 21.6176
r190 34 35 26
r191 32 59 0.0189301
r192 32 34 0.209873
r193 30 31 0.105696
r194 29 58 0.0860099
r195 29 30 0.312369
r196 28 59 0.072841
r197 28 31 0.312369
r198 24 57 0.0101025
r199 24 26 0.292846
r200 22 64 21.6176
r201 22 64 21.6176
r202 21 22 26
r203 19 58 0.0860099
r204 19 21 0.209873
r205 18 58 0.0860099
r206 17 57 0.0439269
r207 17 18 0.356296
r208 15 16 0.105696
r209 14 15 0.312369
r210 13 58 0.0860099
r211 13 16 0.312369
r212 11 64 21.6176
r213 11 64 21.6176
r214 10 11 26
r215 8 14 0.0961124
r216 8 10 0.209873
r217 6 55 0.0101025
r218 6 7 2.53959
r219 4 61 21.7381
r220 3 4 26
r221 1 7 0.0961124
r222 1 3 0.112258
.ends

.subckt PM_LOW_SWING_TX%NET14 86 166 174 175 176 177 178 180 185 186 187 188 192
+ 195 196 197 198 200 206 207 208 218 219 224 225 230 231 236 237 242 243 245
+ 246 251 253 255 257 266 275 284 286 287 292 298 304 310 316 320 325 328 329
+ 332 333 338 343 346 350 356 363 366 372 375 381 386 396 400 408 VSS
c440 396 VSS 0.00205373f
c441 395 VSS 0.00250548f
c442 394 VSS 4.97217e-19
c443 393 VSS 0.0040377f
c444 392 VSS 4.97217e-19
c445 391 VSS 4.97217e-19
c446 386 VSS 0.0564226f
c447 381 VSS 0.0037441f
c448 375 VSS 0.0497773f
c449 372 VSS 0.00413732f
c450 366 VSS 0.0562058f
c451 363 VSS 0.00413981f
c452 360 VSS 0.00484523f
c453 356 VSS 0.00691626f
c454 350 VSS 0.0197649f
c455 346 VSS 0.00504266f
c456 343 VSS 0.00413981f
c457 338 VSS 0.00269957f
c458 333 VSS 0.00114571f
c459 332 VSS 0.0197649f
c460 329 VSS 0.00114571f
c461 328 VSS 0.00504266f
c462 325 VSS 0.00369845f
c463 320 VSS 0.00269957f
c464 316 VSS 0.0397649f
c465 310 VSS 0.0397649f
c466 304 VSS 0.0397649f
c467 298 VSS 0.0397649f
c468 292 VSS 0.0367095f
c469 287 VSS 0.0109227f
c470 286 VSS 0.00870001f
c471 284 VSS 0.0367095f
c472 275 VSS 0.0367095f
c473 253 VSS 0.0357035f
c474 266 VSS 0.0367095f
c475 255 VSS 0.0421611f
c476 254 VSS 0.00438167f
c477 253 VSS 0.016179f
c478 251 VSS 0.0104002f
c479 257 VSS 0.0367569f
c480 246 VSS 0.0082841f
c481 245 VSS 0.00745453f
c482 243 VSS 0.00184958f
c483 242 VSS 0.00901406f
c484 241 VSS 0.00639242f
c485 239 VSS 0.0063523f
c486 237 VSS 0.00184961f
c487 236 VSS 0.0112313f
c488 235 VSS 0.0063523f
c489 233 VSS 0.00639242f
c490 231 VSS 0.00184958f
c491 230 VSS 0.00865605f
c492 229 VSS 0.00639242f
c493 227 VSS 0.0063523f
c494 225 VSS 0.00184961f
c495 224 VSS 0.0112313f
c496 223 VSS 0.0063523f
c497 221 VSS 0.00639242f
c498 219 VSS 0.00184958f
c499 218 VSS 0.00865605f
c500 217 VSS 0.00639242f
c501 253 VSS 0.0300116f
c502 210 VSS 0.0063523f
c503 208 VSS 0.00184961f
c504 207 VSS 0.0112313f
c505 206 VSS 0.0357035f
c506 204 VSS 0.0063523f
c507 202 VSS 0.00639242f
c508 200 VSS 0.0048397f
c509 198 VSS 0.00184958f
c510 197 VSS 0.00865605f
c511 196 VSS 0.00295461f
c512 195 VSS 0.0142463f
c513 194 VSS 0.00639242f
c514 192 VSS 0.0048397f
c515 190 VSS 0.0063523f
c516 188 VSS 0.00184961f
c517 187 VSS 0.0112313f
c518 186 VSS 0.0357035f
c519 185 VSS 0.00870001f
c520 184 VSS 0.0063523f
c521 182 VSS 0.00736165f
c522 180 VSS 0.00580893f
c523 178 VSS 0.00236845f
c524 177 VSS 0.00865605f
c525 176 VSS 0.00295461f
c526 175 VSS 0.0142463f
c527 174 VSS 0.0065424f
c528 167 VSS 0.00433293f
c529 166 VSS 0.0326864f
c530 86 VSS 0.0373113f
r531 388 389 0.105696
r532 386 389 0.224515
r533 386 387 20
r534 384 396 0.072841
r535 384 388 0.732115
r536 382 408 21.6176
r537 382 408 21.6176
r538 381 382 26
r539 379 396 0.0189301
r540 379 381 0.209873
r541 377 378 0.105696
r542 376 395 0.072841
r543 376 377 0.732115
r544 375 396 0.072841
r545 375 378 0.732115
r546 373 408 21.6176
r547 373 408 21.6176
r548 372 373 26
r549 370 395 0.0189301
r550 370 372 0.209873
r551 368 369 0.105696
r552 367 394 0.0860099
r553 367 368 0.732115
r554 366 395 0.072841
r555 366 369 0.732115
r556 364 408 21.6176
r557 364 408 21.6176
r558 363 364 26
r559 361 394 0.0860099
r560 361 363 0.209873
r561 360 394 0.0860099
r562 359 393 0.072841
r563 359 360 0.107377
r564 357 400 21.7381
r565 356 357 26
r566 354 393 0.072841
r567 354 356 0.19035
r568 352 353 0.136734
r569 351 392 0.072841
r570 351 352 0.91853
r571 350 394 0.0860099
r572 350 353 0.91853
r573 348 349 0.143665
r574 347 391 0.072841
r575 347 348 0.91853
r576 346 393 0.0189301
r577 346 349 0.91853
r578 344 408 21.6176
r579 344 408 21.6176
r580 343 344 26
r581 341 392 0.0189301
r582 341 343 0.209873
r583 339 400 22.5519
r584 339 400 22.5519
r585 338 339 26
r586 336 391 0.0189301
r587 336 338 0.19035
r588 334 335 0.136734
r589 333 334 0.91853
r590 332 392 0.072841
r591 332 335 0.91853
r592 330 331 0.143665
r593 329 330 0.91853
r594 328 391 0.072841
r595 328 331 0.91853
r596 326 408 21.6176
r597 326 408 21.6176
r598 325 326 26
r599 323 333 0.0961124
r600 323 325 0.209873
r601 321 400 22.5519
r602 321 400 22.5519
r603 320 321 26
r604 318 329 0.0961124
r605 318 320 0.19035
r606 257 316 8.22375
r607 312 257 8.22375
r608 257 310 8.22375
r609 306 257 8.22375
r610 257 304 8.22375
r611 300 257 8.22375
r612 257 298 8.22375
r613 294 257 8.22375
r614 257 292 8.22375
r615 288 257 8.22375
r616 286 287 17.0841
r617 257 284 8.22375
r618 280 257 8.22375
r619 257 275 8.22375
r620 271 257 8.22375
r621 257 266 8.22375
r622 262 257 8.22375
r623 257 258 22.9862
r624 255 257 8.11837
r625 253 254 22.9862
r626 251 387 4.17273
r627 246 257 7.07625
r628 244 246 16.938
r629 244 245 35.7
r630 242 245 8.54855
r631 242 243 89.25
r632 241 243 8.54855
r633 240 316 15.7905